15
Coordinates from ORCA-job /Users/lailaal-madhagi/Desktop/Testing_XAS_Analysis_code/1-3-5-2-4_Benzotrithiadiazepine//Results_dir_Benzotrithiadiazepine_geom_element_N_2019-11-11_07-22-02//GTE1_Benzotrithiadiazepine_geom_2019-11-11_07-22-14//opt
  C   -0.59253451270352      0.89580734841805     -0.02691643814629
  C   -0.56987051205334     -0.51306813789085     -0.13533489694498
  C   0.64859886671606      1.58621932099498      0.07379291335336
  C   0.69293915201176     -1.17077056460770     -0.13851928957922
  C   1.85722751517108      0.92506643485262      0.06849017544602
  C   1.87981214325102     -0.47834424405552     -0.03965021840815
  S   -1.90318631456037      2.08472751094051      0.01584247039413
  N   -3.44123497153755      1.52678699060265     -0.09128230929506
  S   -4.18070098825254      0.14488939221369     -0.22945432332132
  N   -3.39721647642981     -1.21764909464983     -0.30164884949252
  S   -1.84178537472445     -1.73587208472815     -0.27802103564213
  H   0.63367913750489      2.67112542630558      0.15720763968386
  H   2.78228434355624      1.48827690408363      0.14744111634797
  H   2.82260990268065     -1.01707187255344     -0.04583733720709
  H   0.71285808936988     -2.25558332992621     -0.22208961718861
