17
Coordinates from ORCA-job /Users/lailaal-madhagi/Desktop/Testing_XAS_Analysis_code/PhenylMethylKetone//Results_dir_PhenylMethylKetone_geom_element_C_2019-11-19_00-49-16//GTE1_PhenylMethylKetone_geom_2019-11-19_00-49-24//opt
  C   -1.72575021624160      1.14643551649194      0.04069262034375
  C   -0.42210241755904      1.66703597958373     -0.04862006099854
  C   -1.94190239446556     -0.22729600689091      0.07161885697775
  C   -0.85577909599287     -1.10756475554521      0.01390478365188
  C   0.44325694973461     -0.60438990532445     -0.07465950785418
  C   0.66001716117202      0.77433419727045     -0.10590487922377
  C   -0.27817381564755      3.16115244012393     -0.07637497471214
  C   1.09418931498813      3.81786596338816     -0.17568912872297
  H   -2.55254994914003      1.84803665451591      0.08436071487903
  H   -2.95469680337861     -0.61575975767656      0.14054548067956
  H   -1.02260137844511     -2.18156984504425      0.03786639809136
  H   1.67824298841425      1.14235045340175     -0.17463393397153
  H   1.28987781098806     -1.28452186890737     -0.11957095800652
  O   -1.26866615890081      3.87614274757223     -0.01900482053436
  H   1.93982998992854      3.13057820447029     -0.22650319960029
  H   1.22414578468017      4.47458164047361      0.69163656219625
  H   1.10485222986536      4.45745834209675     -1.06516395319529
