10
Coordinates from ORCA-job /Users/lailaal-madhagi/Desktop/Testing_XAS_Analysis_code/Pyrrole//Results_dir_Pyrrole_geom_element_C_2019-11-27_22-27-37//GTE1_Pyrrole_geom_2019-11-27_22-27-45//opt
  C   -2.57785886444752      0.90292164008303      0.00000004181994
  C   -1.15923161918667      1.04876055320763     -0.00000004842288
  C   -2.85381404585401     -0.44789241677220     -0.00000000156000
  N   -1.65308071557283     -1.12001834457449     -0.00000002729703
  C   -0.61416558963685     -0.21768227893363      0.00000005223063
  H   -3.79277334031952     -0.98309871277562     -0.00000001587182
  H   -3.31192135642252      1.69784728331363      0.00000006055393
  H   -0.60232370902511      1.97636212516825     -0.00000009552388
  H   0.41405766380454     -0.55069284888107      0.00000008652142
  H   -1.54998842333952     -2.12287699983553     -0.00000005245032
