16
Coordinates from ORCA-job /Users/lailaal-madhagi/Desktop/Testing_XAS_Analysis_code/OrthoNitroAniline//Results_dir_OrthoNitroAniline_geom_element_N_2019-11-13_21-09-48//GTE1_OrthoNitroAniline_geom_2019-11-13_21-10-04//opt
  C   -1.45346609527951      0.88466793848981     -0.19353469062290
  C   -0.06757675873702      1.08985113741136     -0.31190827327279
  C   -1.96827338944660     -0.38289027676331     -0.00036813705697
  C   -1.08002615440486     -1.47149088009265      0.07664728283304
  C   0.28393970080771     -1.28568047229483     -0.03772533012371
  C   0.84943146648033      0.00160078232676     -0.23686616214913
  N   2.19564263548816      0.13257342363366     -0.34326352576861
  H   2.58705691599106      1.05320308417723     -0.48457665793660
  H   2.78631324461817     -0.68157659583195     -0.28063377113478
  N   0.37963848951992      2.45365682622918     -0.51276814365549
  O   -0.46486477298540      3.34893441121482     -0.56808311328595
  O   1.60101408963272      2.67799885095377     -0.62284221670124
  H   0.95931311887771     -2.13593296939911      0.02380380996199
  H   -3.03924842756171     -0.53222140090626      0.08963509884010
  H   -1.46541469637637     -2.47660022879526      0.22817970349280
  H   -2.09649936662431      1.75351636964679     -0.25938587341977
