17
Coordinates from ORCA-job /Users/lailaal-madhagi/Desktop/Testing_XAS_Analysis_code/PhenylMethylKetone//Results_dir_PhenylMethylKetone_geom_element_O_2019-11-19_07-03-20//GTE1_PhenylMethylKetone_geom_2019-11-19_07-03-29//opt
  C   -1.72575021586489      1.14643551648054      0.04069262164606
  C   -0.42210241702741      1.66703597974155     -0.04862006112916
  C   -1.94190239401839     -0.22729600696577      0.07161885897153
  C   -0.85577909617695     -1.10756475606843      0.01390478404385
  C   0.44325694939911     -0.60438990554505     -0.07465950980472
  C   0.66001716125070      0.77433419690182     -0.10590488090971
  C   -0.27817381588233      3.16115244062668     -0.07637497659531
  C   1.09418931512169      3.81786596374795     -0.17568912663860
  H   -2.55254994910410      1.84803665392536      0.08436071626497
  H   -2.95469680316028     -0.61575975675077      0.14054548495828
  H   -1.02260137930051     -2.18156984531424      0.03786639835460
  H   1.67824298878133      1.14235045190891     -0.17463393844247
  H   1.28987781114362     -1.28452186827218     -0.11957096227276
  O   -1.26866615934209      3.87614274749662     -0.01900482751906
  H   1.93982999035124      3.13057820440724     -0.22650319047464
  H   1.22414577989352      4.47458164391230      0.69163656279617
  H   1.10485223393574      4.45745833976746     -1.06516395324904
