10
Coordinates from ORCA-job /Users/lailaal-madhagi/Desktop/Testing_XAS_Analysis_code/Acetone//Results_dir_Acetone_geom_element_O_2019-11-03_21-09-28//GTE1_Acetone_geom_2019-11-03_21-09-47//opt
  C   -2.52972452541189     -0.06458660349640     -0.01973787749018
  C   -1.17843318742438      0.63359136650352      0.01420125568527
  H   -2.61585602006515     -0.69308539553204     -0.91570571171894
  H   -3.33059700509050      0.67802553330367     -0.01564687574470
  H   -2.64106594719779     -0.72988466203918      0.84639858333798
  C   0.04976136425008     -0.26429306467995      0.01279870497722
  H   0.06049858174540     -0.90029491822424     -0.88198709209043
  H   0.03555854336606     -0.93712176243853      0.88019322251233
  H   0.95493737353366      0.34629510973919      0.03838475871559
  O   -1.08494917770548      1.84551439686395      0.04110103181586
