17
Coordinates from ORCA-job /Users/lailaal-madhagi/Desktop/Testing_XAS_Analysis_code/PhenylAcetaldehyde//Results_dir_PhenylAcetaldehyde_geom_element_O_2019-11-16_19-17-35//GTE1_PhenylAcetaldehyde_geom_2019-11-16_19-17-41//opt
  C   -1.71475452256152      1.14923225403626     -0.01490312035309
  C   -0.42610031104561      1.70823291130532     -0.00325346728837
  C   -1.90665809740289     -0.23078053028258     -0.00870857304997
  C   -0.80500093935178     -1.09074631163362      0.00942988406795
  C   0.48002746222213     -0.55151139422642      0.02115532575077
  C   0.66864326121718      0.83463577916472      0.01488489911570
  C   -0.31409357301845      3.22484953904914     -0.01123138624820
  C   1.05886297365622      3.87937142776959      0.00103419129367
  H   -0.85642527808768      3.64435753580778      0.84913643315586
  H   -0.83590164473083      3.63369184118568     -0.88925976515410
  O   1.19880095771543      5.08300582895912     -0.00641509811168
  H   1.95113278190018      3.21981460019291      0.01481732124754
  H   -2.57985700667343      1.80991562063954     -0.02907016364716
  H   -2.91576888871560     -0.63499998754129     -0.01802120480740
  H   -0.94898827556245     -2.16798172553973      0.01432838462978
  H   1.68460839096136      1.21552145383653      0.02439875382132
  H   1.34677270947775     -1.20761884272296      0.03530758557738
