13
Coordinates from ORCA-job /Users/lailaal-madhagi/Desktop/Testing_XAS_Analysis_code/Phenol//Results_dir_Phenol_geom_element_C_2019-11-16_16-50-48//GTE1_Phenol_geom_2019-11-16_16-51-35//opt
  C   -3.02637424445562      1.00187005017529      0.00227546937676
  C   -1.91674016920944      1.85566751567296      0.01029450259294
  C   -2.83312143551668     -0.37807164806413     -0.00096549022024
  C   -1.54361204236798     -0.92003953578590      0.00369504699554
  C   -0.44284796243296     -0.06198998204429      0.01168465555392
  C   -0.62288268005910      1.32280299681852      0.01501047575545
  O   -2.15964771146364      3.20291609581532      0.01320031995700
  H   -1.31222332767280      3.67513543887903      0.01873717566963
  H   -4.02196068146012      1.43505830206698     -0.00127573556958
  H   -3.69896661764887     -1.03557856343013     -0.00720397647420
  H   -1.39994099132975     -1.99674471672332      0.00112877831511
  H   0.56593206406011     -0.46715000938336      0.01538242758227
  H   0.23893579955685      1.98906405600302      0.02126635046540
