23
Coordinates from ORCA-job /Users/lailaal-madhagi/Desktop/Testing_XAS_Analysis_code/PhenylAlanine//Results_dir_PhenylAlanine_geom_element_O_2019-11-18_00-35-02//GTE1_PhenylAlanine_geom_2019-11-18_00-35-14//opt
  C   -2.34742750260217      1.10593447117251      1.18674735463653
  C   -1.44969621660254      1.67648571853934      0.27041902890903
  C   -2.42093161599603     -0.27744116994532      1.35297401171665
  C   -1.59566394624058     -1.12045651467158      0.60411820265855
  C   -0.69635542087877     -0.56834853872793     -0.30931229033775
  C   -0.62729567149941      0.81726694815868     -0.47243719000479
  C   -2.50289455846751      3.78284926996180     -0.83018914780834
  H   -2.98949309637515      1.75105895255236      1.78175083580361
  H   -3.12043677810700     -0.69774174141534      2.07127912433438
  H   -0.04568814856869     -1.21398296005499     -0.89398250262405
  H   0.08307728153657      1.23953713246781     -1.18070992748163
  C   -3.76329114372788      3.99295261383940      0.00028889932825
  O   -4.72314558282400      3.06922452866827     -0.23858052772975
  O   -3.89051735827985      4.86634360711708      0.83127964251338
  N   -2.79089135953293      3.07740525943059     -2.07339319668087
  H   -1.92922821853686      2.96504939209716     -2.60579803249723
  H   -3.13093063289873      2.13966478626148     -1.86794728278750
  H   -5.46559362196130      3.29339465924794      0.35481699080049
  C   -1.37254653234850      3.17551955048750      0.07945089696402
  H   -2.17221336460756      4.79501681753750     -1.08917192714376
  H   -0.41534232599058      3.43415702129810     -0.39012494262779
  H   -1.39705050948259      3.68957317044119      1.04830119750671
  H   -1.65066367600796     -2.19801297446354      0.73556078255187
