14
Coordinates from ORCA-job /Users/lailaal-madhagi/Desktop/Testing_XAS_Analysis_code/Nitrobenzene//Results_dir_Nitrobenzene_geom_element_O_2019-11-11_23-02-32//GTE1_Nitrobenzene_geom_2019-11-11_23-02-45//opt
  C   -3.43926969733168      2.04687112196815     -0.03737719981986
  C   -2.04160484789015      2.08106515157605     -0.06178215999363
  C   -4.11384030380803      0.82624657385655      0.06400007746990
  C   -3.39667197224916     -0.36664052830821      0.14154375294985
  C   -2.00378682720790     -0.30841283202173      0.11553281901530
  C   -1.31005475660257      0.89694164557241      0.01500817518016
  N   -1.23811832771219     -1.56461545221179      0.19707441481739
  O   -1.87262416366632     -2.61544492031959      0.28440353178609
  O   -0.01011439979818     -1.48740520735868      0.17299948599445
  H   -3.88954741001640     -1.32792382963256      0.22072927589112
  H   -4.00389393971310      2.97332619188317     -0.09749798881786
  H   -5.19958709357685      0.80177077692246      0.08280140061150
  H   -0.22696844559176      0.89000832008033     -0.00126043151527
  H   -1.51949781483571      3.03019298799343     -0.14061515356915
