15

C         -0.01464       -0.32568       -1.08575
C          0.83561        0.14404       -0.12270
N         -1.25568       -0.36622       -0.49432
C         -1.11092        0.07259        0.78028
N          0.13883        0.39275        1.03656
H         -2.12611       -0.67016       -0.91656
H          0.15006       -0.63478       -2.10264
H          1.89629        0.31527       -0.19297
H         -1.93366        0.13724        1.47346
O         -3.86731       -1.34508       -1.46178
H         -4.10025       -2.27901       -1.40585
H         -4.68969       -0.87249       -1.62848
O          1.23043        1.25198        3.55620
H          1.13363        2.20939        3.54714
H          0.86345        0.95034        2.69724
