13
Coordinates from ORCA-job /Users/lailaal-madhagi/Desktop/Testing_XAS_Analysis_code/Alanine//Results_dir_Alanine_geom_element_C_2019-11-03_21-44-41//GTE1_Alanine_geom_2019-11-03_21-44-56//opt
  C   -3.55663885957771      1.13273325134710     -0.31382703800948
  C   -2.39414187424069      0.11742457633574     -0.20450771594323
  H   -4.46210424752696      0.62041501868323     -0.65991116690712
  H   -3.32680763975889      1.93459472258029     -1.02489645000897
  H   -3.76709105739789      1.58085521715703      0.66447552054889
  C   -1.15279191057912      0.85862043069159      0.26987503438436
  N   -2.62367088787807     -1.00069691827146      0.70644208454585
  H   -2.18535405439160     -0.27611235272468     -1.20693071122140
  O   -0.51836495447578      1.49157298807335     -0.74400377084643
  O   -0.78752827653825      0.93332222516023      1.42317664428909
  H   0.22475612972902      1.97832876315047     -0.33821799738130
  H   -3.57736869152706     -1.34203223899908      0.60443053509699
  H   -2.51287367583701     -0.67233568318381      1.66479503145276
