14
Coordinates from ORCA-job /Users/lailaal-madhagi/Desktop/Testing_XAS_Analysis_code/Benzaldehyde//Results_dir_Benzaldehyde_geom_element_C_2019-11-04_22-42-45//GTE1_Benzaldehyde_geom_2019-11-04_22-42-57//opt
  C   -1.65689573944298      1.10569666424050      0.00001037950732
  C   -0.26658431171320      1.24632626246993      0.00075437801692
  C   -2.23977319510833     -0.16812116986140     -0.00009871414773
  C   -1.43308216531379     -1.30176434903154      0.00053225181295
  C   -0.03556488567386     -1.16627360985995      0.00128170336717
  C   0.54279139193894      0.11028165458919      0.00139030804767
  C   0.83058439957537     -2.36745216411721      0.00195046453813
  O   0.42634982739670     -3.51479152375124      0.00182018034124
  H   1.92272607752988     -2.14975994541774      0.00247224030470
  H   -2.28960736845147      1.98972025463994     -0.00048742466105
  H   -3.32185803435743     -0.26972944529688     -0.00067624430996
  H   0.18172657592461      2.23613935766759      0.00083662222001
  H   1.62692783755993      0.20788733046520      0.00197223111886
  H   -1.85735040986436     -2.30146931673640      0.00046162384378
