12
Coordinates from ORCA-job /Users/lailaal-madhagi/Desktop/Testing_XAS_Analysis_code/Benzene//Results_dir_Benzene_geom_element_C_2019-11-05_19-06-04//GTE1_Benzene_geom_2019-11-05_19-06-39//opt
  C   -2.52113318061543      1.14277970146977      0.01505812801871
  C   -1.13004236648583      1.27360408909850      0.02612110686729
  C   -3.10323143824611     -0.12720527088181     -0.01418663275291
  C   -2.29423891484808     -1.26638657367591     -0.03238148768261
  C   -0.32104979924222      0.13442274346340      0.00792630597712
  C   -0.90314669558148     -1.13556060491794     -0.02131846751481
  H   -3.15064436482711      2.02921302069698      0.02920299404093
  H   -0.67701252654372      2.26171911802082      0.04884855034757
  H   -4.18576073398075     -0.22902720516972     -0.02276383093884
  H   -2.74711632401492     -2.25457053465118     -0.05510990733411
  H   -0.27350489456224     -2.02190236342110     -0.03546047090050
  H   0.76148123894790      0.23624387996820      0.01650371187216
