9
Coordinates from ORCA-job /Users/lailaal-madhagi/Desktop/Testing_XAS_Analysis_code/Imidazole/Gas//Results_dir_Imidazole_geom_element_N_2019-11-03_16-54-11//GTE1_Imidazole_geom_2019-11-03_16-54-36//opt
  C   -11.83352618784437      8.42505288854535     -0.10804131004983
  C   -10.47197046990509      8.27293733489806     -0.02004638807975
  N   -12.33509016190719      7.13910782265087     -0.15605798192099
  C   -11.26681911596748      6.28690316171391     -0.09562903659336
  N   -10.12713462128858      6.93814965527518     -0.01311975766917
  H   -13.30862917588881      6.87980135954158     -0.22282998589560
  H   -12.47475150401723      9.29329353197570     -0.14030481619763
  H   -9.71836757237474      9.04713228488608      0.03892532847675
  H   -11.38394119080652      5.21113196051325     -0.11572605207041
