16
Coordinates from ORCA-job /Users/lailaal-madhagi/Desktop/Testing_XAS_Analysis_code/MetaNitroAniline//Results_dir_MetaNitroAniline_geom_element_N_2019-11-11_19-56-33//GTE1_MetaNitroAniline_geom_2019-11-11_19-57-01//opt
  C   -0.50332095009256      1.08564489285825     -0.00328866783970
  C   -1.70445833067738      0.37530603927269     -0.00918095651759
  C   0.67487055544259      0.34395753069139     -0.06167953673131
  C   -1.72033279299716     -1.01569682197950     -0.07098274314771
  C   -0.51723336047615     -1.75147646264576     -0.12967805293671
  C   0.69856214781421     -1.04499652108586     -0.12418985584413
  N   -0.52980762181946     -3.12470040204096     -0.19058453750647
  N   1.96436490293856      1.05950606417789     -0.05746817743596
  O   1.93652592254476      2.28863549038314     -0.00196536216708
  H   0.32739042780228     -3.65060358739582     -0.23581323439172
  H   -1.39582531388218     -3.63750831477260     -0.19785450186568
  O   2.99533495157462      0.38763232714480     -0.10974767369301
  H   -0.46700291487418      2.16587729002018      0.04407164915069
  H   -2.64608502081014      0.91544792399847      0.03518713009666
  H   -2.66932705712237     -1.54706398457246     -0.07437664134224
  H   1.65136445463458     -1.55949146405384     -0.16754883782805
