13
Coordinates from ORCA-job /Users/lailaal-madhagi/Desktop/Testing_XAS_Analysis_code/Phenol//Results_dir_Phenol_geom_element_O_2019-11-16_18-22-27//GTE1_Phenol_geom_2019-11-16_18-22-42//opt
  C   -3.02637424438033      1.00187005022418      0.00227546897767
  C   -1.91674016917496      1.85566751591844      0.01029450253642
  C   -2.83312143544306     -0.37807164835930     -0.00096549023070
  C   -1.54361204229734     -0.92003953597773      0.00369504719601
  C   -0.44284796258608     -0.06198998202890      0.01168465526615
  C   -0.62288268008318      1.32280299682729      0.01501047563816
  O   -2.15964771121714      3.20291609611205      0.01320031965486
  H   -1.31222332737055      3.67513543919867      0.01873717662677
  H   -4.02196068186145      1.43505830119828     -0.00127573585622
  H   -3.69896661831477     -1.03557856285828     -0.00720397614189
  H   -1.39994099089237     -1.99674471686133      0.00112877866084
  H   0.56593206399257     -0.46715000926218      0.01538242722350
  H   0.23893579962867      1.98906405586884      0.02126635044843
