23
Coordinates from ORCA-job /Users/lailaal-madhagi/Desktop/Testing_XAS_Analysis_code/Benzophenone//Results_dir_Benzophenone_geom_element_C_2019-11-05_23-12-41//GTE1_Benzophenone_geom_2019-11-05_23-12-55//opt
  C   -2.26460730153164      1.72151561623074     -0.10013410316586
  C   -1.72129147853087      2.74142752922567     -0.88511855192278
  C   -0.33956853360764      2.85571068601150     -1.04881680282524
  C   -1.41312344070139      0.80760502499611      0.52612489423271
  C   -0.03009731151279      0.91490759597772      0.37812330262219
  C   0.50189405715978      1.94003402260851     -0.40827242311409
  H   -2.37522685269830      3.45266790583064     -1.38347443462229
  H   0.08313587214652      3.64104217235314     -1.66724492327640
  H   -1.82443218921387      0.00887365900538      1.13802527431978
  H   -3.34117859819835      1.63862023924554      0.02046319866750
  H   0.64924684684832      0.21638277334842      0.85709356032218
  O   1.87339764573016      1.94086526407472     -0.57794158134460
  C   2.58093817261577      3.12623668230302     -0.64073255602210
  C   2.28903314858792      4.22523748204456      0.17401563344903
  C   3.09902506108673      5.36012072027598      0.10338976101829
  C   4.19541843199996      5.40123192028205     -0.76137636175721
  C   4.48144712002710      4.29282042831994     -1.56265360674718
  C   3.67556365574503      3.15536810030116     -1.50867102770827
  H   1.44336720902273      4.18831175024961      0.85327915231977
  H   4.82191120399656      6.28765210854388     -0.80874885806827
  H   2.87245789273285      6.21395420155425      0.73704358386102
  H   5.33313310746208      4.31238015887708     -2.23788914049617
  H   3.87931628083334      2.28393395834037     -2.12343398974199
