13
Coordinates from ORCA-job /Users/lailaal-madhagi/Desktop/Testing_XAS_Analysis_code/Benzonitrile//Results_dir_Benzonitrile_geom_element_C_2019-11-05_19-31-48//GTE1_Benzonitrile_geom_2019-11-05_19-32-02//opt
  C   -3.06557818780686      1.34498863803442     -0.00349265007751
  C   -2.40510002704818      2.57687527653261      0.00059725920508
  C   -1.00825861460786      2.62500271067457     -0.00271049932624
  C   -2.33500918098282      0.15865247561188     -0.01087981940318
  C   -0.92998290944243      0.20604417365743     -0.01420625513082
  C   -0.26682888180301      1.44549460466970     -0.01009533002364
  C   -0.17148485755987     -1.01231230998601     -0.02180306048332
  N   0.44414642336112     -1.99953932366296     -0.02798051318866
  H   -2.97904591184785      3.49954135793719      0.00636950976875
  H   -0.49551196459761      3.58265665279462      0.00046126019973
  H   -2.83805118303083     -0.80323499202422     -0.01410731216771
  H   -4.15130923172078      1.30801820921581     -0.00092985468350
  H   0.81840452708700      1.47198252654495     -0.01272273468899
