15
Coordinates from ORCA-job /Users/lailaal-madhagi/Desktop/Testing_XAS_Analysis_code/Diethylether//Results_dir_Diethylether_geom_element_C_2019-11-10_17-22-04//GTE1_Diethylether_geom_2019-11-10_17-22-15//opt
  C   -3.01508993724161      0.56660742094191      0.14345846645788
  O   -1.80252121501063     -0.16245214769310      0.09765528133329
  C   -0.65798137693052      0.63802413791636      0.32830518162161
  C   0.57546872789581     -0.24891383165797      0.25391369108518
  H   -0.72562908904665      1.12457455782666      1.31776201140267
  H   -0.59948789932635      1.44560537429975     -0.42320870209849
  H   0.52437810326990     -1.04111313503312      1.00856953097406
  H   1.48276897193948      0.34070737827259      0.42841310225706
  H   0.65032987315502     -0.72004636738394     -0.73198928115161
  C   -4.16622497177273     -0.39263388831076     -0.11766130561492
  H   -4.05837260029121     -0.86288473051419     -1.10091332246442
  H   -5.12346311716234      0.14049593232362     -0.08931071952972
  H   -4.18560984890499     -1.18368353288037      0.63964918393923
  H   -3.00437145809608      1.37272718340761     -0.61184149712635
  H   -3.13169416247711      1.05172564848496      1.12899837891453
