13
Coordinates from ORCA-job /Users/lailaal-madhagi/Desktop/Testing_XAS_Analysis_code/2-1-3_Benzotrithiadizole//Results_dir_Benzotrithiadizole_geom_element_C_2019-11-13_23-15-39//GTE1_Benzotrithiadizole_geom_2019-11-13_23-15-53//opt
  C   -3.73487954494877      0.66209732827603     -0.00001385001217
  C   -3.56255387203660     -0.76176616997202      0.00029855296785
  C   -2.66534474151511      1.52016217237626     -0.00191103700630
  C   -2.31921070730692     -1.33996649930425     -0.00128382776574
  C   -1.17955288078107     -0.48250137198689     -0.00328251642465
  C   -1.35405106068247      0.95932074660925     -0.00359843805317
  N   -0.20028821297041      1.63977940619526     -0.00554699412252
  N   0.10323364307452     -0.86806448380354     -0.00499545428182
  S   0.99661968494303      0.51234293252480     -0.00684637638842
  H   -2.78679218016657      2.59850942107937     -0.00216279301890
  H   -4.74533866941164      1.06193405491812      0.00129658890005
  H   -4.44849259096847     -1.39113880649015      0.00183808568016
  H   -2.17983886722953     -2.41615873042224     -0.00106194047438
