2
Coordinates from ORCA-job /Users/lailaal-madhagi/Desktop/Testing_XAS_Analysis_code/CarbonMonoxide//Results_dir_CarbonMonoxide_geom_element_C_2019-11-10_00-49-59//GTE1_CarbonMonoxide_geom_2019-11-10_00-50-26//opt
  C   -1.76047632546441     -0.00560595250070      0.30679036431001
  O   -0.66076367453559      0.13538595250070      0.05075963568999
