23
Coordinates from ORCA-job /Users/lailaal-madhagi/Desktop/Testing_XAS_Analysis_code/PhenylAlanine//Results_dir_PhenylAlanine_geom_element_C_2019-11-17_21-07-00//GTE1_PhenylAlanine_geom_2019-11-17_21-07-40//opt
  C   -2.34742890321750      1.10593329845748      1.18674348877975
  C   -1.44969533292534      1.67648540783236      0.27041790763679
  C   -2.42093198844503     -0.27744237838908      1.35297032234646
  C   -1.59566091672928     -1.12045700660882      0.60411743868299
  C   -0.69635022705773     -0.56834821309850     -0.30931042699372
  C   -0.62729173476305      0.81726730135168     -0.47243562909122
  C   -2.50289548323577      3.78284806677270     -0.83018890130771
  H   -2.98949832597161      1.75105678324869      1.78174390762964
  H   -3.12043922410265     -0.69774361234706      2.07127302340054
  H   -0.04568064069198     -1.21398207617960     -0.89397869111651
  H   0.08308281644697      1.23953806941592     -1.18070643831447
  C   -3.76329014554676      3.99295465114362      0.00029149624961
  O   -4.72315161574029      3.06923554412249     -0.23858346464864
  O   -3.89050916925647      4.86634156744530      0.83128765615911
  N   -2.79089478491824      3.07740191543264     -2.07339106768102
  H   -1.92923135531541      2.96503716242323     -2.60579348986440
  H   -3.13094211563423      2.13966497489010     -1.86794253367588
  H   -5.46559791493689      3.29340746567761      0.35481555686225
  C   -1.37254617006643      3.17551939538331      0.07945022513531
  H   -2.17221433240286      4.79501509904048     -1.08917416974339
  H   -0.41534256195179      3.43415703489415     -0.39012666355008
  H   -1.39704990781888      3.68957305251146      1.04830043663707
  H   -1.65065996571880     -2.19801350342015      0.73556001646751
