13
Coordinates from ORCA-job /Users/lailaal-madhagi/Desktop/Testing_XAS_Analysis_code/Alanine//Results_dir_Alanine_geom_element_O_2019-11-03_23-33-49//GTE1_Alanine_geom_2019-11-03_23-34-01//opt
  C   -3.55663886259806      1.13273324563549     -0.31382707931602
  C   -2.39414187471326      0.11742457768587     -0.20450770220530
  H   -4.46210424110211      0.62041500232124     -0.65991121561279
  H   -3.32680762653499      1.93459470328484     -1.02489649836250
  H   -3.76709109324034      1.58085523012147      0.66447546554506
  C   -1.15279190036444      0.85862041673411      0.26987504918640
  N   -2.62367091488676     -1.00069690512475      0.70644210624037
  H   -2.18535402820759     -0.27611237593981     -1.20693068568979
  O   -0.51836505022066      1.49157310316768     -0.74400374342147
  O   -0.78752814352090      0.93332206530718      1.42317662976709
  H   0.22475608490508      1.97832881575712     -0.33821799251336
  H   -3.57736874358824     -1.34203216705298      0.60443061208704
  H   -2.51287360592772     -0.67233571189746      1.66479505429526
