12
Coordinates from ORCA-job /Users/lailaal-madhagi/Desktop/Testing_XAS_Analysis_code/Borazine//Results_dir_Borazine_geom_element_B_2019-11-09_12-51-34//GTE1_Borazine_geom_2019-11-09_12-51-43//opt
  N   -2.54110844780443      0.51920912241364      0.04202369511617
  B   -1.13684844893336      0.79894097810466      0.03273562388077
  B   -3.06798492957933     -0.81223188048400      0.04412374134994
  N   -2.12362861076195     -1.88855279409780      0.03642787242773
  B   -0.70718564483974     -1.67906182122941      0.02691232719991
  N   -0.24721950811148     -0.32303781405640      0.02530932323667
  H   -4.24773955187550     -1.01677939053822      0.05200030980778
  H   -3.18913777443843      1.29593835223866      0.04737697142854
  H   -0.72415233001277      1.92290724551660      0.03111377294468
  H   0.74941988785065     -0.15017311254196      0.01868055232154
  H   0.05984287428246     -2.59857470171576      0.02063671793097
  H   -2.47219751577611     -2.83811418361000      0.03775909235529
